Version 4
SHEET 1 984 680
WIRE 704 -160 480 -160
WIRE 896 -160 704 -160
WIRE 912 -160 896 -160
WIRE 192 -128 64 -128
WIRE 288 -128 192 -128
WIRE 384 -128 288 -128
WIRE 480 -128 480 -160
WIRE 192 -64 192 -128
WIRE 704 -48 704 -80
WIRE 288 -16 288 -48
WIRE 432 -16 432 -64
WIRE 432 -16 288 -16
WIRE 480 -16 432 -16
WIRE 592 32 544 32
WIRE 704 32 592 32
WIRE 64 48 64 -128
WIRE 192 80 192 16
WIRE 480 80 192 80
WIRE 704 144 704 112
WIRE 192 160 192 80
WIRE 64 272 64 128
WIRE 192 272 192 224
WIRE 192 272 64 272
WIRE 704 272 704 224
WIRE 704 272 192 272
WIRE 912 272 704 272
FLAG 592 32 B
FLAG 896 -160 O
FLAG 64 272 0
SYMBOL voltage 64 32 R0
WINDOW 123 0 0 Left 0
WINDOW 39 0 0 Left 0
SYMATTR InstName V1
SYMATTR Value 30
SYMBOL res 176 -80 R0
SYMATTR InstName R1
SYMATTR Value 4.7k
SYMBOL res 272 -144 R0
SYMATTR InstName R2
SYMATTR Value 1k
SYMBOL npn 384 -64 R270
SYMATTR InstName Q1
SYMATTR Value 2SC1384
SYMBOL npn 544 -16 M0
SYMATTR InstName Q2
SYMATTR Value 2SC1384
SYMBOL zener 208 224 R180
WINDOW 0 24 64 Left 2
WINDOW 3 24 0 Left 2
SYMATTR InstName D1
SYMATTR Value UMZ5_1N
SYMBOL res 688 -64 R0
SYMATTR InstName R3
SYMATTR Value 10k
SYMBOL res 688 -176 R0
SYMATTR InstName R4
SYMATTR Value 5k
SYMBOL res 688 16 R0
SYMATTR InstName R5
SYMATTR Value 0.01
SYMBOL res 688 128 R0
SYMATTR InstName R6
SYMATTR Value 5k
TEXT 30 296 Left 2 !.tran 100ms
