Version 4
SHEET 1 1016 680
WIRE 784 -64 688 -64
WIRE 688 -16 688 -64
WIRE 704 -16 688 -16
WIRE 784 -16 784 -64
WIRE 960 48 672 48
WIRE 784 80 784 -16
WIRE 672 96 672 48
WIRE 64 112 48 112
WIRE 176 112 128 112
WIRE 224 112 176 112
WIRE 336 112 288 112
WIRE 400 112 336 112
WIRE 496 112 464 112
WIRE 608 112 608 -16
WIRE 608 112 576 112
WIRE 640 112 608 112
WIRE 784 128 784 80
WIRE 784 128 704 128
WIRE 176 144 176 112
WIRE 336 144 336 112
WIRE 640 144 608 144
WIRE 960 144 960 48
WIRE 176 256 176 224
WIRE 336 256 336 224
WIRE 336 256 176 256
WIRE 608 256 608 144
WIRE 608 256 336 256
WIRE 864 256 608 256
WIRE 960 256 960 224
WIRE 960 256 864 256
WIRE 864 272 864 256
WIRE 48 288 48 112
WIRE 784 288 784 128
WIRE 784 288 48 288
WIRE 960 288 960 256
WIRE 672 400 672 160
WIRE 960 400 960 368
WIRE 960 400 672 400
FLAG 864 272 0
FLAG 784 80 out
SYMBOL OpAmps\\LM741 672 64 R0
SYMATTR InstName U1
SYMBOL res 592 96 R90
WINDOW 0 0 56 VBottom 2
WINDOW 3 32 56 VTop 2
SYMATTR InstName R1
SYMATTR Value 2.2k
SYMBOL cap 464 96 R90
WINDOW 0 0 32 VBottom 2
WINDOW 3 32 32 VTop 2
SYMATTR InstName C1
SYMATTR Value 0.01µ
SYMBOL res 320 128 R0
SYMATTR InstName R2
SYMATTR Value 2.2k
SYMBOL res 160 128 R0
SYMATTR InstName R3
SYMATTR Value 2.2k
SYMBOL cap 288 96 R90
WINDOW 0 0 32 VBottom 2
WINDOW 3 32 32 VTop 2
SYMATTR InstName C2
SYMATTR Value 0.01µ
SYMBOL cap 128 96 R90
WINDOW 0 0 32 VBottom 2
WINDOW 3 32 32 VTop 2
SYMATTR InstName C3
SYMATTR Value 0.01µ
SYMBOL res 704 -32 R90
WINDOW 0 0 56 VBottom 2
WINDOW 3 32 56 VTop 2
SYMATTR InstName R4
SYMATTR Value 70k
SYMBOL res 800 -32 R90
WINDOW 0 0 56 VBottom 2
WINDOW 3 32 56 VTop 2
SYMATTR InstName R5
SYMATTR Value 30k
SYMBOL voltage 960 128 R0
WINDOW 123 0 0 Left 0
WINDOW 39 0 0 Left 0
SYMATTR InstName V1
SYMATTR Value 9
SYMBOL voltage 960 272 R0
WINDOW 123 0 0 Left 0
WINDOW 39 0 0 Left 0
SYMATTR InstName V2
SYMATTR Value 9
TEXT 46 406 Left 2 !.tran 150m
